<?xml version="1.0" encoding="UTF-8"?>

<!-- generated on 2023-02-14 21:03:21 by Eclipse SUMO netedit Version 1.15.0-->

<routes xmlns:xsi="http://www.w3.org/2001/XMLSchema-instance" xsi:noNamespaceSchemaLocation="http://sumo.dlr.de/xsd/routes_file.xsd">
    <!-- Routes -->

    <!-- Vehicles -->
    <flow id="v_0" begin="0" end="3600" type="DEFAULT_VEHTYPE" vehsPerHour="2000" departLane="best" departSpeed="max"
          from="E0" to="E1"/>

</routes>
