<?xml version="1.0" encoding="UTF-8"?>

<!-- generated on 2023-02-14 21:03:21 by Eclipse SUMO netedit Version 1.15.0-->

<routes xmlns:xsi="http://www.w3.org/2001/XMLSchema-instance" xsi:noNamespaceSchemaLocation="http://sumo.dlr.de/xsd/routes_file.xsd">
    <!-- Routes -->

    <!-- Vehicles -->
    <flow id="v_0" begin="0" end="3600" type="DEFAULT_VEHTYPE" vehsPerHour="2400" departLane="best" departSpeed="max"
          from="E0" to="E2"/>
<!--    <flow id="v_1" begin="3600" end="7200" type="DEFAULT_VEHTYPE" vehsPerHour="6000" departLane="best" departSpeed="max"-->
<!--          from="E0" to="E1"/>-->
<!--    <flow id="v_2" begin="7200" end="10800" type="DEFAULT_VEHTYPE" vehsPerHour="400" departLane="best" departSpeed="max"-->
<!--          from="E0" to="E1"/>-->
</routes>
