<?xml version="1.0" encoding="UTF-8"?>

<!-- generated on 2024-03-20 15:18:41 by Eclipse SUMO netedit Version 1.18.0
<configuration xmlns:xsi="http://www.w3.org/2001/XMLSchema-instance" xsi:noNamespaceSchemaLocation="http://sumo.dlr.de/xsd/neteditConfiguration.xsd">

    <input>
        <sumo-net-file value="D:\simulation-studies\sumo-meso-test\scenarios\TrafficFlowTest\trafficFlow1.net.xml"/>
    </input>

    <output>
        <output-file value="D:\simulation-studies\sumo-meso-test\scenarios\TrafficFlowTest\trafficFlow1.net.xml"/>
    </output>

    <processing>
        <geometry.min-radius.fix.railways value="false"/>
        <geometry.max-grade.fix value="false"/>
        <offset.disable-normalization value="true"/>
        <lefthand value="0"/>
    </processing>

    <junctions>
        <no-turnarounds value="true"/>
        <junctions.corner-detail value="5"/>
        <junctions.limit-turn-speed value="5.50"/>
        <rectangular-lane-cut value="0"/>
    </junctions>

    <pedestrian>
        <walkingareas value="0"/>
    </pedestrian>

</configuration>
-->

<net version="1.16" junctionCornerDetail="5" limitTurnSpeed="5.50" xmlns:xsi="http://www.w3.org/2001/XMLSchema-instance" xsi:noNamespaceSchemaLocation="http://sumo.dlr.de/xsd/net_file.xsd">

    <location netOffset="0.00,0.00" convBoundary="-371.90,64.48,351.72,66.01" origBoundary="-10000000000.00,-10000000000.00,10000000000.00,10000000000.00" projParameter="!"/>

    <edge id=":J1_0" function="internal">
        <lane id=":J1_0_0" index="0" speed="20.00" length="0.10" shape="146.91,63.33 146.91,63.33"/>
    </edge>

    <edge id="E0" from="J0" to="J1" priority="-1" shape="-371.90,66.01 67.69,65.09 146.91,64.93">
        <lane id="E0_0" index="0" speed="20.00" length="518.81" shape="-371.90,64.41 67.69,63.49 146.91,63.33"/>
    </edge>
    <edge id="E2" from="J1" to="J2" priority="-1">
        <lane id="E2_0" index="0" speed="20.00" length="204.81" shape="146.91,63.33 351.72,62.88"/>
    </edge>

    <tlLogic id="J1" type="static" programID="0" offset="0">
        <phase duration="80" state="G"/>
<!--        <phase duration="5"  state="y"/>-->
<!--        <phase duration="5"  state="r"/>-->
    </tlLogic>

    <junction id="J0" type="dead_end" x="-371.90" y="66.01" incLanes="" intLanes="" shape="-371.90,66.01 -371.91,62.81"/>
    <junction id="J1" type="traffic_light" x="146.91" y="64.93" incLanes="E0_0" intLanes=":J1_0_0" shape="146.91,64.93 146.90,61.73 146.91,64.93">
        <request index="0" response="0" foes="0" cont="0"/>
    </junction>
    <junction id="J2" type="dead_end" x="351.72" y="64.48" incLanes="E2_0" intLanes="" shape="351.71,61.28 351.72,64.48"/>

    <connection from="E0" to="E2" fromLane="0" toLane="0" via=":J1_0_0" tl="J1" linkIndex="0" dir="s" state="O"/>

    <connection from=":J1_0" to="E2" fromLane="0" toLane="0" dir="s" state="M"/>

</net>
